FoamFile
{
	version 2.0;
	format binary;
	class volScalarField;
	location "";
	object nut;
}
/*---------------------------------------------------------------------------*/
/*---------------------------------------------------------------------------*/

$../BC!turbulent

dimensions [0 2 -1 0 0 0 0];

internalField uniform $nut;


boundaryField
{
	inlet
	{
		type	calculated;
		value	uniform $nut;
	}

	outlet
	{
		type	calculated;
		value	uniform	$nut;
	}

	wall
	{
		type	nutkWallFunction;
		value	uniform $nutWall;
	}

	NCC
	{
		type	zeroGradient;
	}

	#includeEtc "caseDicts/setConstraintTypes"
}
