FoamFile
{
	version 2.0;
	format binary;
	class volScalarField;
	location "";
	object p;
}
/*---------------------------------------------------------------------------*/
/*---------------------------------------------------------------------------*/

$../BC!flow

dimensions [0 2 -2 0 0 0 0];

internalField uniform $p;


boundaryField
{
    inlet
    {
        type            totalPressure;
        rho             rho;
        psi             none;
        gamma           1;
        p0              uniform 0;
		value			uniform 0;
	}

	outlet
	{
		type	fixedValue;
		value	$internalField;
	}

	wall
	{
		type	zeroGradient;
	}
	
	NCC
	{
		type	zeroGradient;
	}

	#includeEtc "caseDicts/setConstraintTypes"
}
