/*--------------------------------*- C++ -*----------------------------------*\
  =========                 |				
  \\      /  F ield         | OpenFOAM: The Open Source CFD Toolbox
   \\    /   O peration     | Website:  https://openfoam.org
    \\  /    A nd           | Version:  9                                   	
     \\/     M anipulation  |
\*---------------------------------------------------------------------------*/
FoamFile
{
    format      ascii;
    class       dictionary;
    object      controlDict;
}
// * * * * * * * * * * * * * * * * * * * * * * * * * * * * * * * * * * * * * //

application     foamRun;

solver          incompressibleFluid;

startFrom       latestTime;

startTime       0;

stopAt          endTime;

endTime         2001;	//5000 - 10000

deltaT          1;

writeControl    timeStep;

writeInterval   100;	//

purgeWrite      3;	//5;

writeFormat     binary;	//binary/ascii

writePrecision  12;

writeCompression false;

timeFormat      general;

timePrecision   6;

runTimeModifiable yes;

// ************************************************************************* //

functions
{
#includeFunc residuals(fields=(p U k epsilon nut omega))
#includeFunc patchFlowRate(patch=inlet, log=true)
#includeFunc patchFlowRate(patch=outlet, log=true)
#includeFunc patchAverage(patch=inlet,fields=(p), log=true, timeStart=100)
#includeFunc staticPressureIncompressible(rhoInf=1.205) 
#includeFunc patchAverage(patch=inlet,fields=(static(p)), log=true, timeStart=100)
#includeFunc yPlus
#includeFunc cellMaxMag(fields=(p U), log=true)
#includeFunc turbulenceFields(fields=(epsilon))
#includeFunc forcesIncompressible(patches=(rotor), rhoInf=1.225, pitchAxis=(1 0 0),CofR=(0 0 0))


fvSchemes
{
  type              timeActivatedFileUpdate;
  libs              ("libutilityFunctionObjects.so");
  writeControl      timeStep;
  writeInterval     1;
  fileToUpdate      "$FOAM_CASE/system/fvSchemes";
  timeVsFile
  (
      (-1 "$FOAM_CASE/system/fvSchemes.1")
      (150 "$FOAM_CASE/system/fvSchemes.2")
  );
}


}

// ************************************************************************* //
