/*--------------------------------*- C++ -*----------------------------------*\
  =========                 |				
  \\      /  F ield         | OpenFOAM: The Open Source CFD Toolbox
   \\    /   O peration     | Website:  https://openfoam.org
    \\  /    A nd           | Version:  9                                   	
     \\/     M anipulation  |
\*---------------------------------------------------------------------------*/
FoamFile
{
    format      ascii;
    class       dictionary;
    object      controlDict;
}
// * * * * * * * * * * * * * * * * * * * * * * * * * * * * * * * * * * * * * //

application     foamRun;

solver          incompressibleFluid;

startFrom       startTime;

startTime       0;

stopAt          endTime;

endTime         1000;	//5000 - 10000

deltaT          1;

writeControl    timeStep;

writeInterval   500;	//

purgeWrite      3;	//5;

writeFormat     binary;	//binary/ascii

writePrecision  12;

writeCompression false;

timeFormat      general;

timePrecision   6;

runTimeModifiable yes;

// ************************************************************************* //

functions
{
#includeFunc residuals(fields=(p U k epsilon nut omega))
#includeFunc patchFlowRate(patch=inlet, log=true, writeControl=none)
#includeFunc patchFlowRate(patch=outlet, log=true, writeControl=none)
#includeFunc patchAverage(patch=inlet,fields=(p), log=true, timeStart=700)
#includeFunc yPlus
#includeFunc cellMaxMag(fields=(p U), log=true)
#includeFunc turbulenceFields(fields=(omega))

fvSchemes
{
  type              timeActivatedFileUpdate;
  libs              ("libutilityFunctionObjects.so");
  writeControl      timeStep;
  writeInterval     1;
  fileToUpdate      "$FOAM_CASE/system/fvSchemes";
  timeVsFile
  (
      (-1 "$FOAM_CASE/system/fvSchemes.1")
      (300 "$FOAM_CASE/system/fvSchemes.2")
  );
}


}

// ************************************************************************* //
