/*--------------------------------*- C++ -*----------------------------------*\
  =========                 |				
  \\      /  F ield         | OpenFOAM: The Open Source CFD Toolbox
   \\    /   O peration     | Website:  https://openfoam.org
    \\  /    A nd           | Version:  9                                   	
     \\/     M anipulation  |
\*---------------------------------------------------------------------------*/
FoamFile
{
    format      ascii;
    class       dictionary;
    object      fvSchemes;
}
// * * * * * * * * * * * * * * * * * * * * * * * * * * * * * * * * * * * * * //

#include "fvSchemes.Guided"

divSchemes
{
    default         none;
    div(phi,U)      bounded Gauss linearUpwindV grad(U);

    div(phi,k)      	bounded Gauss limitedLinear 1;
    div(phi,omega)  	bounded Gauss limitedLinear 1;
    div(phi,epsilon) 	bounded Gauss limitedLinear 1;
    
    div(nonlinearStress) Gauss linear;

    div((nuEff*dev2(T(grad(U))))) Gauss linear;

}

// ************************************************************************* //
