/*--------------------------------*- C++ -*----------------------------------*\
  =========                 |
  \\      /  F ield         | OpenFOAM: The Open Source CFD Toolbox
   \\    /   O peration     | Website:  https://openfoam.org
    \\  /    A nd           | Version:  11
     \\/     M anipulation  |
\*---------------------------------------------------------------------------*/
FoamFile
{
    format      ascii;
    class       dictionary;
    object      fvSolution;
}
// * * * * * * * * * * * * * * * * * * * * * * * * * * * * * * * * * * * * * //

solvers
{
    "p.*"
    {
    solver          PCG;
    preconditioner
    {
        preconditioner  GAMG;
        tolerance       1e-12;	//1e-06 1e-08
        relTol          0.0;	//0.01 0
        nVcycles        2;
        smoother        GaussSeidel;
        nPreSweeps      0;
        nPostSweeps     2;
        nFinestSweeps   2;
        cacheAgglomeration false;
        nCellsInCoarsestLevel 10;
        agglomerator    faceAreaPair;
        mergeLevels     1;
    }
    minIter 2;
    maxIter 100;
    tolerance       1e-12;
    relTol          0.005;
    }

    Phi
    {
        solver GAMG;
        agglomerator faceAreaPair;
        mergeLevels 1;
        cacheAgglomeration true;
        nCellsInCoarsestLevel 200;
        tolerance 1e-6;
        relTol 0.01;
        smoother GaussSeidel;
        nPreSweeps 0;
        nPostSweeps 2;
        nFinestSweeps 2;
        minIter 1;
    }

    MeshPhi
    {
        solver          smoothSolver;
        smoother        symGaussSeidel;
        tolerance       1e-2;
        relTol          0;
    }

    "(U|k|omega|epsilon)"
    {
        solver          PBiCGStab;
        preconditioner  DILU;
        tolerance       1e-12;
        relTol          0.1;
        minIter 3;
    }
}

"(PIMPLE|PISO)"
{
    correctPhi          yes;
    correctMeshPhi      yes;
    nOuterCorrectors    1;
    nCorrectors         1;
    nNonOrthogonalCorrectors 3;
    residualControl
    {
        p               1e-3;
        U               1e-4;
        "(k|omega|epsilon)" 1e-4;
    }
}

potentialFlow
{
    nNonOrthogonalCorrectors 15;
}

relaxationFactors
{
    fields
    {
        p               0.1;
    }
    equations
    {
        U               0.2;
        "(k|omega|epsilon)" 0.2;
    }
}

cache
{
    grad(U);
}

// ************************************************************************* //
